/*--------------------------------*- C++ -*----------------------------------*\
  =========                 |
  \\      /  F ield         | OpenFOAM: The Open Source CFD Toolbox
   \\    /   O peration     | Website:  https://openfoam.org
    \\  /    A nd           | Version:  10
     \\/     M anipulation  |
\*---------------------------------------------------------------------------*/
FoamFile
{
    format      ascii;
    class       scalarField;
    location    "0";
    object      NH3_all-;
}
// * * * * * * * * * * * * * * * * * * * * * * * * * * * * * * * * * * * * * //


4000
(
2.798755047
2.798755047
2.798755047
2.798755047
2.798755047
2.798755047
2.798755047
2.798755047
2.798755047
2.798755047
2.798755047
2.798755047
2.798755047
2.798755047
2.798755047
2.798755047
2.798755047
2.798755047
2.798755047
2.798755047
2.798755047
2.798755047
2.798755047
2.798755047
2.798755047
2.798755047
2.798755047
2.798755047
2.798755047
2.798755047
2.798755047
2.798755047
2.798755047
2.798755047
2.798755047
2.798755047
2.798755047
2.798755047
2.798755047
2.798755047
2.798755047
2.798755047
2.798755047
2.798755047
2.798755047
2.798755047
2.798755047
2.798755047
2.798755047
2.798755047
2.798755047
2.798755047
2.798755047
2.798755047
2.798755047
2.798755047
2.798755047
2.798755047
2.798755047
2.798755047
2.798755047
2.798755047
2.798755047
2.798755047
2.798755047
2.798755047
2.798755047
2.798755047
2.798755047
2.798755047
2.798755047
2.798755047
2.798755047
2.798755047
2.798755047
2.798755047
2.798755047
2.798755047
2.798755047
2.798755047
2.798755047
2.798755047
2.798755047
2.798755047
2.798755047
2.798755047
2.798755047
2.798755047
2.798755047
2.798755047
2.798755047
2.798755047
2.798755047
2.798755047
2.798755047
2.798755047
2.798755047
2.798755047
2.798755047
2.798755047
2.798755047
2.798755047
2.798755047
2.798755047
2.798755047
2.798755047
2.798755047
2.798755047
2.798755047
2.798755047
2.798755047
2.798755047
2.798755047
2.798755047
2.798755047
2.798755047
2.798755047
2.798755047
2.798755047
2.798755047
2.798755047
2.798755047
2.798755047
2.798755047
2.798755047
2.798755047
2.798755047
2.798755047
2.798755047
2.798755047
2.798755047
2.798755047
2.798755047
2.798755047
2.798755047
2.798755047
2.798755047
2.798755047
2.798755047
2.798755047
2.798755047
2.798755047
2.798755047
2.798755047
2.798755047
2.798755047
2.798755047
2.798755047
2.798755047
2.798755047
2.798755047
2.798755047
2.798755047
2.798755047
2.798755047
2.798755047
2.798755047
2.798755047
2.798755047
2.798755047
2.798755047
2.798755047
2.798755047
2.798755047
2.798755047
2.798755047
2.798755047
2.798755047
2.798755047
2.798755047
2.798755047
2.798755047
2.798755047
2.798755047
2.798755047
2.798755047
2.798755047
2.798755047
2.798755047
2.798755047
2.798755047
2.798755047
2.798755047
2.798755047
2.798755047
2.798755047
2.798755047
2.798755047
2.798755047
2.798755047
2.798755047
2.798755047
2.798755047
2.798755047
2.798755047
2.798755047
2.798755047
2.798755047
2.798755047
2.798755047
2.798755047
2.798755047
2.798755047
2.798755047
2.798755047
2.798755047
2.798755047
2.798755047
2.798755047
2.798755047
2.798755047
2.798755047
2.798755047
2.798755047
2.798755047
2.798755047
2.798755047
2.798755047
2.798755047
2.798755047
2.798755047
2.798755047
2.798755047
2.798755047
2.798755047
2.798755047
2.798755047
2.798755047
2.798755047
2.798755047
2.798755047
2.798755047
2.798755047
2.798755047
2.798755047
2.798755047
2.798755047
2.798755047
2.798755047
2.798755047
2.798755047
2.798755047
2.798755047
2.798755047
2.798755047
2.798755047
2.798755047
2.798755047
2.798755047
2.798755047
2.798755047
2.798755047
2.798755047
2.798755047
2.798755047
2.798755047
2.798755047
2.798755047
2.798755047
2.798755047
2.798755047
2.798755047
2.798755047
2.798755047
2.798755047
2.798755047
2.798755047
2.798755047
2.798755047
2.798755047
2.798755047
2.798755047
2.798755047
2.798755047
2.798755047
2.798755047
2.798755047
2.798755047
2.798755047
2.798755047
2.798755047
2.798755047
2.798755047
2.798755047
2.798755047
2.798755047
2.798755047
2.798755047
2.798755047
2.798755047
2.798755047
2.798755047
2.798755047
2.798755047
2.798755047
2.798755047
2.798755047
2.798755047
2.798755047
2.798755047
2.798755047
2.798755047
2.798755047
2.798755047
2.798755047
2.798755047
2.798755047
2.798755047
2.798755047
2.798755047
2.798755047
2.798755047
2.798755047
2.798755047
2.798755047
2.798755047
2.798755047
2.798755047
2.798755047
2.798755047
2.798755047
2.798755047
2.798755047
2.798755047
2.798755047
2.798755047
2.798755047
2.798755047
2.798755047
2.798755047
2.798755047
2.798755047
2.798755047
2.798755047
2.798755047
2.798755047
2.798755047
2.798755047
2.798755047
2.798755047
2.798755047
2.798755047
2.798755047
2.798755047
2.798755047
2.798755047
2.798755047
2.798755047
2.798755047
2.798755047
2.798755047
2.798755047
2.798755047
2.798755047
2.798755047
2.798755047
2.798755047
2.798755047
2.798755047
2.798755047
2.798755047
2.798755047
2.798755047
2.798755047
2.798755047
2.798755047
2.798755047
2.798755047
2.798755047
2.798755047
2.798755047
2.798755047
2.798755047
2.798755047
2.798755047
2.798755047
2.798755047
2.798755047
2.798755047
2.798755047
2.798755047
2.798755047
2.798755047
2.798755047
2.798755047
2.798755047
2.798755047
2.798755047
2.798755047
2.798755047
2.798755047
2.798755047
2.798755047
2.798755047
2.798755047
2.798755047
2.798755047
2.798755047
2.798755047
2.798755047
2.798755047
2.798755047
2.798755047
2.798755047
2.798755047
2.798755047
2.798755047
2.798755047
2.798755047
2.798755047
2.798755047
2.798755047
2.798755047
2.798755047
2.798755047
2.798755047
2.798755047
2.798755047
2.798755047
2.798755047
2.798755047
2.798755047
2.798755047
2.798755047
2.798755047
2.798755047
2.798755047
2.798755047
2.798755047
2.798755047
2.798755047
2.798755047
2.798755047
2.798755047
2.798755047
2.798755047
2.798755047
2.798755047
2.798755047
2.798755047
2.798755047
2.798755047
2.798755047
2.798755047
2.798755047
2.798755047
2.798755047
2.798755047
2.798755047
2.798755047
2.798755047
2.798755047
2.798755047
2.798755047
2.798755047
2.798755047
2.798755047
2.798755047
2.798755047
2.798755047
2.798755047
2.798755047
2.798755047
2.798755047
2.798755047
2.798755047
2.798755047
2.798755047
2.798755047
2.798755047
2.798755047
2.798755047
2.798755047
2.798755047
2.798755047
2.798755047
2.798755047
2.798755047
2.798755047
2.798755047
2.798755047
2.798755047
2.798755047
2.798755047
2.798755047
2.798755047
2.798755047
2.798755047
2.798755047
2.798755047
2.798755047
2.798755047
2.798755047
2.798755047
2.798755047
2.798755047
2.798755047
2.798755047
2.798755047
2.798755047
2.798755047
2.798755047
2.798755047
2.798755047
2.798755047
2.798755047
2.798755047
2.798755047
2.798755047
2.798755047
2.798755047
2.798755047
2.798755047
2.798755047
2.798755047
2.798755047
2.798755047
2.798755047
2.798755047
2.798755047
2.798755047
2.798755047
2.798755047
2.798755047
2.798755047
2.798755047
2.798755047
2.798755047
2.798755047
2.798755047
2.798755047
2.798755047
2.798755047
2.798755047
2.798755047
2.798755047
2.798755047
2.798755047
2.798755047
2.798755047
2.798755047
2.798755047
2.798755047
2.798755047
2.798755047
2.798755047
2.798755047
2.798755047
2.798755047
2.798755047
2.798755047
2.798755047
2.798755047
2.798755047
2.798755047
2.798755047
2.798755047
2.798755047
2.798755047
2.798755047
2.798755047
2.798755047
2.798755047
2.798755047
2.798755047
2.798755047
2.798755047
2.798755047
2.798755047
2.798755047
2.798755047
2.798755047
2.798755047
2.798755047
2.798755047
2.798755047
2.798755047
2.798755047
2.798755047
2.798755047
2.798755047
2.798755047
2.798755047
2.798755047
2.798755047
2.798755047
2.798755047
2.798755047
2.798755047
2.798755047
2.798755047
2.798755047
2.798755047
2.798755047
2.798755047
2.798755047
2.798755047
2.798755047
2.798755047
2.798755047
2.798755047
2.798755047
2.798755047
2.798755047
2.798755047
2.798755047
2.798755047
2.798755047
2.798755047
2.798755047
2.798755047
2.798755047
2.798755047
2.798755047
2.798755047
2.798755047
2.798755047
2.798755047
2.798755047
2.798755047
2.798755047
2.798755047
2.798755047
2.798755047
2.798755047
2.798755047
2.798755047
2.798755047
2.798755047
2.798755047
2.798755047
2.798755047
2.798755047
2.798755047
2.798755047
2.798755047
2.798755047
2.798755047
2.798755047
2.798755047
2.798755047
2.798755047
2.798755047
2.798755047
2.798755047
2.798755047
2.798755047
2.798755047
2.798755047
2.798755047
2.798755047
2.798755047
2.798755047
2.798755047
2.798755047
2.798755047
2.798755047
2.798755047
2.798755047
2.798755047
2.798755047
2.798755047
2.798755047
2.798755047
2.798755047
2.798755047
2.798755047
2.798755047
2.798755047
2.798755047
2.798755047
2.798755047
2.798755047
2.798755047
2.798755047
2.798755047
2.798755047
2.798755047
2.798755047
2.798755047
2.798755047
2.798755047
2.798755047
2.798755047
2.798755047
2.798755047
2.798755047
2.798755047
2.798755047
2.798755047
2.798755047
2.798755047
2.798755047
2.798755047
2.798755047
2.798755047
2.798755047
2.798755047
2.798755047
2.798755047
2.798755047
2.798755047
2.798755047
2.798755047
2.798755047
2.798755047
2.798755047
2.798755047
2.798755047
2.798755047
2.798755047
2.798755047
2.798755047
2.798755047
2.798755047
2.798755047
2.798755047
2.798755047
2.798755047
2.798755047
2.798755047
2.798755047
2.798755047
2.798755047
2.798755047
2.798755047
2.798755047
2.798755047
2.798755047
2.798755047
2.798755047
2.798755047
2.798755047
2.798755047
2.798755047
2.798755047
2.798755047
2.798755047
2.798755047
2.798755047
2.798755047
2.798755047
2.798755047
2.798755047
2.798755047
2.798755047
2.798755047
2.798755047
2.798755047
2.798755047
2.798755047
2.798755047
2.798755047
2.798755047
2.798755047
2.798755047
2.798755047
2.798755047
2.798755047
2.798755047
2.798755047
2.798755047
2.798755047
2.798755047
2.798755047
2.798755047
2.798755047
2.798755047
2.798755047
2.798755047
2.798755047
2.798755047
2.798755047
2.798755047
2.798755047
2.798755047
2.798755047
2.798755047
2.798755047
2.798755047
2.798755047
2.798755047
2.798755047
2.798755047
2.798755047
2.798755047
2.798755047
2.798755047
2.798755047
2.798755047
2.798755047
2.798755047
2.798755047
2.798755047
2.798755047
2.798755047
2.798755047
2.798755047
2.798755047
2.798755047
2.798755047
2.798755047
2.798755047
2.798755047
2.798755047
2.798755047
2.798755047
2.798755047
2.798755047
2.798755047
2.798755047
2.798755047
2.798755047
2.798755047
2.798755047
2.798755047
2.798755047
2.798755047
2.798755047
2.798755047
2.798755047
2.798755047
2.798755047
2.798755047
2.798755047
2.798755047
2.798755047
2.798755047
2.798755047
2.798755047
2.798755047
2.798755047
2.798755047
2.798755047
2.798755047
2.798755047
2.798755047
2.798755047
2.798755047
2.798755047
2.798755047
2.798755047
2.798755047
2.798755047
2.798755047
2.798755047
2.798755047
2.798755047
2.798755047
2.798755047
2.798755047
2.798755047
2.798755047
2.798755047
2.798755047
2.798755047
2.798755047
2.798755047
2.798755047
2.798755047
2.798755047
2.798755047
2.798755047
2.798755047
2.798755047
2.798755047
2.798755047
2.798755047
2.798755047
2.798755047
2.798755047
2.798755047
2.798755047
2.798755047
2.798755047
2.798755047
2.798755047
2.798755047
2.798755047
2.798755047
2.798755047
2.798755047
2.798755047
2.798755047
2.798755047
2.798755047
2.798755047
2.798755047
2.798755047
2.798755047
2.798755047
2.798755047
2.798755047
2.798755047
2.798755047
2.798755047
2.798755047
2.798755047
2.798755047
2.798755047
2.798755047
2.798755047
2.798755047
2.798755047
2.798755047
2.798755047
2.798755047
2.798755047
2.798755047
2.798755047
2.798755047
2.798755047
2.798755047
2.798755047
2.798755047
2.798755047
2.798755047
2.798755047
2.798755047
2.798755047
2.798755047
2.798755047
2.798755047
2.798755047
2.798755047
2.798755047
2.798755047
2.798755047
2.798755047
2.798755047
2.798755047
2.798755047
2.798755047
2.798755047
2.798755047
2.798755047
2.798755047
2.798755047
2.798755047
2.798755047
2.798755047
2.798755047
2.798755047
2.798755047
2.798755047
2.798755047
2.798755047
2.798755047
2.798755047
2.798755047
2.798755047
2.798755047
2.798755047
2.798755047
2.798755047
2.798755047
2.798755047
2.798755047
2.798755047
2.798755047
2.798755047
2.798755047
2.798755047
2.798755047
2.798755047
2.798755047
2.798755047
2.798755047
2.798755047
2.798755047
2.798755047
2.798755047
2.798755047
2.798755047
2.798755047
2.798755047
2.798755047
2.798755047
2.798755047
2.798755047
2.798755047
2.798755047
2.798755047
2.798755047
2.798755047
2.798755047
2.798755047
2.798755047
2.798755047
2.798755047
2.798755047
2.798755047
2.798755047
2.798755047
2.798755047
2.798755047
2.798755047
2.798755047
2.798755047
2.798755047
2.798755047
2.798755047
2.798755047
2.798755047
2.798755047
2.798755047
2.798755047
2.798755047
2.798755047
2.798755047
2.798755047
2.798755047
2.798755047
2.798755047
2.798755047
2.798755047
2.798755047
2.798755047
2.798755047
2.798755047
2.798755047
2.798755047
2.798755047
2.798755047
2.798755047
2.798755047
2.798755047
2.798755047
2.798755047
2.798755047
2.798755047
2.798755047
2.798755047
2.798755047
2.798755047
2.798755047
2.798755047
2.798755047
2.798755047
2.798755047
2.798755047
2.798755047
2.798755047
2.798755047
2.798755047
2.798755047
2.798755047
2.798755047
2.798755047
2.798755047
2.798755047
2.798755047
2.798755047
2.798755047
2.798755047
2.798755047
2.798755047
2.798755047
2.798755047
2.798755047
2.798755047
2.798755047
2.798755047
2.798755047
2.798755047
2.798755047
2.798755047
2.798755047
2.798755047
2.798755047
2.798755047
2.798755047
2.798755047
2.798755047
2.798755047
2.798755047
2.798755047
2.798755047
2.798755047
2.798755047
2.798755047
2.798755047
2.798755047
2.798755047
2.798755047
2.798755047
2.798755047
2.798755047
2.798755047
2.798755047
2.798755047
2.798755047
2.798755047
2.798755047
2.798755047
2.798755047
2.798755047
2.798755047
2.798755047
2.798755047
2.798755047
2.798755047
2.798755047
2.798755047
2.798755047
2.798755047
2.798755047
2.798755047
2.798755047
2.798755047
2.798755047
2.798755047
2.798755047
2.798755047
2.798755047
2.798755047
2.798755047
2.798755047
2.798755047
2.798755047
2.798755047
2.798755047
2.798755047
2.798755047
2.798755047
2.798755047
2.798755047
2.798755047
2.798755047
2.798755047
2.798755047
2.798755047
2.798755047
2.798755047
2.798755047
2.798755047
2.798755047
2.798755047
2.798755047
2.798755047
2.798755047
2.798755047
2.798755047
2.798755047
2.798755047
2.798755047
2.798755047
2.798755047
2.798755047
2.798755047
2.798755047
2.798755047
2.798755047
2.798755047
2.798755047
2.798755047
2.798755047
2.798755047
2.798755047
2.798755047
2.798755047
2.798755047
2.798755047
2.798755047
2.798755047
2.798755047
2.798755047
2.798755047
2.798755047
2.798755047
2.798755047
2.798755047
2.798755047
2.798755047
2.798755047
2.798755047
2.798755047
2.798755047
2.798755047
2.798755047
2.798755047
2.798755047
2.798755047
2.798755047
2.798755047
2.798755047
2.798755047
2.798755047
2.798755047
2.798755047
2.798755047
2.798755047
2.798755047
2.798755047
2.798755047
2.798755047
2.798755047
2.798755047
2.798755047
2.798755047
2.798755047
2.798755047
2.798755047
2.798755047
2.798755047
2.798755047
2.798755047
2.798755047
2.798755047
2.798755047
2.798755047
2.798755047
2.798755047
2.798755047
2.798755047
2.798755047
2.798755047
2.798755047
2.798755047
2.798755047
2.798755047
2.798755047
2.798755047
2.798755047
2.798755047
2.798755047
2.798755047
2.798755047
2.798755047
2.798755047
2.798755047
2.798755047
2.798755047
2.798755047
2.798755047
2.798755047
2.798755047
2.798755047
2.798755047
2.798755047
2.798755047
2.798755047
2.798755047
2.798755047
2.798755047
2.798755047
2.798755047
2.798755047
2.798755047
2.798755047
2.798755047
2.798755047
2.798755047
2.798755047
2.798755047
2.798755047
2.798755047
2.798755047
2.798755047
2.798755047
2.798755047
2.798755047
2.798755047
2.798755047
2.798755047
2.798755047
2.798755047
2.798755047
2.798755047
2.798755047
2.798755047
2.798755047
2.798755047
2.798755047
2.798755047
2.798755047
2.798755047
2.798755047
2.798755047
2.798755047
2.798755047
2.798755047
2.798755047
2.798755047
2.798755047
2.798755047
2.798755047
2.798755047
2.798755047
2.798755047
2.798755047
2.798755047
2.798755047
2.798755047
2.798755047
2.798755047
2.798755047
2.798755047
2.798755047
2.798755047
2.798755047
2.798755047
2.798755047
2.798755047
2.798755047
2.798755047
2.798755047
2.798755047
2.798755047
2.798755047
2.798755047
2.798755047
2.798755047
2.798755047
2.798755047
2.798755047
2.798755047
2.798755047
2.798755047
2.798755047
2.798755047
2.798755047
2.798755047
2.798755047
2.798755047
2.798755047
2.798755047
2.798755047
2.798755047
2.798755047
2.798755047
2.798755047
2.798755047
2.798755047
2.798755047
2.798755047
2.798755047
2.798755047
2.798755047
2.798755047
2.798755047
2.798755047
2.798755047
2.798755047
2.798755047
2.798755047
2.798755047
2.798755047
2.798755047
2.798755047
2.798755047
2.798755047
2.798755047
2.798755047
2.798755047
2.798755047
2.798755047
2.798755047
2.798755047
2.798755047
2.798755047
2.798755047
2.798755047
2.798755047
2.798755047
2.798755047
2.798755047
2.798755047
2.798755047
2.798755047
2.798755047
2.798755047
2.798755047
2.798755047
2.798755047
2.798755047
2.798755047
2.798755047
2.798755047
2.798755047
2.798755047
2.798755047
2.798755047
2.798755047
2.798755047
2.798755047
2.798755047
2.798755047
2.798755047
2.798755047
2.798755047
2.798755047
2.798755047
2.798755047
2.798755047
2.798755047
2.798755047
2.798755047
2.798755047
2.798755047
2.798755047
2.798755047
2.798755047
2.798755047
2.798755047
2.798755047
2.798755047
2.798755047
2.798755047
2.798755047
2.798755047
2.798755047
2.798755047
2.798755047
2.798755047
2.798755047
2.798755047
2.798755047
2.798755047
2.798755047
2.798755047
2.798755047
2.798755047
2.798755047
2.798755047
2.798755047
2.798755047
2.798755047
2.798755047
2.798755047
2.798755047
2.798755047
2.798755047
2.798755047
2.798755047
2.798755047
2.798755047
2.798755047
2.798755047
2.798755047
2.798755047
2.798755047
2.798755047
2.798755047
2.798755047
2.798755047
2.798755047
2.798755047
2.798755047
2.798755047
2.798755047
2.798755047
2.798755047
2.798755047
2.798755047
2.798755047
2.798755047
2.798755047
2.798755047
2.798755047
2.798755047
2.798755047
2.798755047
2.798755047
2.798755047
2.798755047
2.798755047
2.798755047
2.798755047
2.798755047
2.798755047
2.798755047
2.798755047
2.798755047
2.798755047
2.798755047
2.798755047
2.798755047
2.798755047
2.798755047
2.798755047
2.798755047
2.798755047
2.798755047
2.798755047
2.798755047
2.798755047
2.798755047
2.798755047
2.798755047
2.798755047
2.798755047
2.798757087
2.798757149
2.798757226
2.798757359
2.798757597
2.79875798
2.798758514
2.798759186
2.798773091
2.798773903
2.798774624
2.798775339
2.798776168
2.798777221
2.798778554
2.798780171
2.798807786
2.798809384
2.798810729
2.798811904
2.798813052
2.798814329
2.798815843
2.798817627
2.798851277
2.798852957
2.798854438
2.798855883
2.798857507
2.798859494
2.798861939
2.798911285
2.798914282
2.798916852
2.798919087
2.798921223
2.798923563
2.798926363
2.798929754
2.798995292
2.79899911
2.799002363
2.799005188
2.799007894
2.799010858
2.799014387
2.79901862
2.799101629
2.799106184
2.799110107
2.799113673
2.799117358
2.799121671
2.799126958
2.799133313
2.799251929
2.799258426
2.799264022
2.799269169
2.799274572
2.799280942
2.79928872
2.799297991
2.799464434
2.799473289
2.799480925
2.799488017
2.799495561
2.799504486
2.799515329
2.799740269
2.799753722
2.799765288
2.799775373
2.799785027
2.799795638
2.799808396
2.799823891
2.800132783
2.800150858
2.800166341
2.800179943
2.800193203
2.800208017
2.800225887
2.80024747
2.800667191
2.800690907
2.800711242
2.800729432
2.800747765
2.800768811
2.800794412
2.800825197
2.801403455
2.801435325
2.801462683
2.801487528
2.801513176
2.801543066
2.801579459
2.801622905
2.802412317
2.802454589
2.802490974
2.802524548
2.802559963
2.8026017
2.802652439
2.802712515
2.803780596
2.803835917
2.803883996
2.803929627
2.803979354
2.804038926
2.804111353
2.805573585
2.805659932
2.805733971
2.805798811
2.805861587
2.805931297
2.806015275
2.806116887
2.808107118
2.808221029
2.808318596
2.808405194
2.808491321
2.808589154
2.808707768
2.808850599
2.811560739
2.811711537
2.811840802
2.811957323
2.812076269
2.812213878
2.812381205
2.812581416
2.816264861
2.816463993
2.816635198
2.816792282
2.81695676
2.817149901
2.817384858
2.817663879
2.822652411
2.822914354
2.823140861
2.823353087
2.823581057
2.823852151
2.824181544
2.830906786
2.831307975
2.831652212
2.831952166
2.832239315
2.832554741
2.83293305
2.833391179
2.842450756
2.842976129
2.843425885
2.84382209
2.84421069
2.844646918
2.8451736
2.845808577
2.857959902
2.858645649
2.859232235
2.859755388
2.860280476
2.860880253
2.861606657
2.862477178
2.878629073
2.879515086
2.880273886
2.880960771
2.881666619
2.88248517
2.883477725
2.884658983
2.905922865
2.90705744
2.908031916
2.908928482
2.909870355
2.910975565
2.912314459
2.91389536
2.941533577
2.942968372
2.944206118
2.945364446
2.946605857
2.948075131
2.949850272
2.985169684
2.987258855
2.98904364
2.990592323
2.992067268
2.993676455
2.995592391
2.997897838
3.042266178
3.044821993
3.046997948
3.048898667
3.050739581
3.052777985
3.055212865
3.058127303
3.112432792
3.115474683
3.118057982
3.120331753
3.12257045
3.125080591
3.128083104
3.131654766
3.196115409
3.199621941
3.202594229
3.205231282
3.207867337
3.210852483
3.21442167
3.218637391
3.292385292
3.29627222
3.299562776
3.302507088
3.305492763
3.308901051
3.3129692
3.393774894
3.398617168
3.402736527
3.406221809
3.409369287
3.412605331
3.416323758
3.420749947
3.505607151
3.510523507
3.514677136
3.518192039
3.521398474
3.524739462
3.528598876
3.533175983
3.617868779
3.622595826
3.626564358
3.629927524
3.633031716
3.636310438
3.64011506
3.644607009
3.724834781
3.729136745
3.732728527
3.735782348
3.73864022
3.741701257
3.745266774
3.74945417
3.821670279
3.825384463
3.828471603
3.831110546
3.833619552
3.836344684
3.839527992
3.901596078
3.905202275
3.908256197
3.91078707
3.912968644
3.915081215
3.917408263
3.920131945
3.971398449
3.974268121
3.976678137
3.978672926
3.980411675
3.982129191
3.98404614
3.986291376
4.027157047
4.029360658
4.031198118
4.032720886
4.034068106
4.035428172
4.036965177
4.038764551
4.07047243
4.072121641
4.073488718
4.074625832
4.075649874
4.076706663
4.077913695
4.079323949
4.103426074
4.104635837
4.105634158
4.106469938
4.107238205
4.108048399
4.108981829
4.127083386
4.12811619
4.128990735
4.129710474
4.130318982
4.130891517
4.131508114
4.132223277
4.14569448
4.146440856
4.147067727
4.147583242
4.148024847
4.148450875
4.148918631
4.149463577
4.159429244
4.159965205
4.160412107
4.160779973
4.161099983
4.161416433
4.161769571
4.162181764
4.16951049
4.169892259
4.170208755
4.170470399
4.170702639
4.170938529
4.171205732
4.171517683
4.176900362
4.177172356
4.177396709
4.177583172
4.177752007
4.17792748
4.178128337
4.178362274
4.182294639
4.182486603
4.182644552
4.182777278
4.182900697
4.183032296
4.183184422
4.18608095
4.186243021
4.18637947
4.186491524
4.186586734
4.186677384
4.186775955
4.186890496
4.189013141
4.189128271
4.189224504
4.189303665
4.189372126
4.189439228
4.189513701
4.189600596
4.191160859
4.191243195
4.191311546
4.19136786
4.191417328
4.19146695
4.191522777
4.191587927
4.192725045
4.192783051
4.192830943
4.192870589
4.192906119
4.192942645
4.192984248
4.19303273
4.19385719
4.193897836
4.193931309
4.193959329
4.193985158
4.19401248
4.194043978
4.194649494
4.194683733
4.194712633
4.194736356
4.194756385
4.194775239
4.194795558
4.19481911
4.195259326
4.195283435
4.195303622
4.195320179
4.195334344
4.195348016
4.195363031
4.195380506
4.195700788
4.195717725
4.19573185
4.195743566
4.195753951
4.195764454
4.195776339
4.195790257
4.19603327
4.196045998
4.196056507
4.196065156
4.196072795
4.196080526
4.196089259
4.19609943
4.196273794
4.196282448
4.196289562
4.19629546
4.196300794
4.196306337
4.196312678
4.196320046
4.196444643
4.196450605
4.19645554
4.196459766
4.196463816
4.196468242
4.19647341
4.196568406
4.196573817
4.196578341
4.196581997
4.196585008
4.196587762
4.196590665
4.196593991
4.196656983
4.19666021
4.196662911
4.196665161
4.196667165
4.196669201
4.196671512
4.196674225
4.196722848
4.196725424
4.196727573
4.196729377
4.196731028
4.196732753
4.196734741
4.196737075
4.196776278
4.196778325
4.196779999
4.19678136
4.196782545
4.19678373
4.196785058
4.196786597
4.196812633
4.196813866
4.196814873
4.196815703
4.196816452
4.196817232
4.196818121
4.19683635
4.196837317
4.196838144
4.196838854
4.196839521
4.196840237
4.196841082
4.196842096
4.196858071
4.196859074
4.196859886
4.196860479
4.196860859
4.196861074
4.196861196
4.196861285
4.196861285
4.196861196
4.196861074
4.196860859
4.196860479
4.196859886
4.196859074
4.196858071
4.196842096
4.196841082
4.196840237
4.196839521
4.196838854
4.196838144
4.196837317
4.19683635
4.196818121
4.196817232
4.196816452
4.196815703
4.196814873
4.196813866
4.196812633
4.196786597
4.196785058
4.19678373
4.196782545
4.19678136
4.196779999
4.196778325
4.196776278
4.196737075
4.196734741
4.196732753
4.196731028
4.196729377
4.196727573
4.196725424
4.196722848
4.196674225
4.196671512
4.196669201
4.196667165
4.196665161
4.196662911
4.19666021
4.196656983
4.196593991
4.196590665
4.196587762
4.196585008
4.196581997
4.196578341
4.196573817
4.196568406
4.19647341
4.196468242
4.196463816
4.196459766
4.19645554
4.196450605
4.196444643
4.196437616
4.196312678
4.196306337
4.196300794
4.19629546
4.196289562
4.196282448
4.196273794
4.19609943
4.196089259
4.196080526
4.196072795
4.196065156
4.196056507
4.196045998
4.19603327
4.195790257
4.195776339
4.195764454
4.195753951
4.195743566
4.19573185
4.195717725
4.195700788
4.195380506
4.195363031
4.195348016
4.195334344
4.195320179
4.195303622
4.195283435
4.195259326
4.19481911
4.194795558
4.194775239
4.194756385
4.194736356
4.194712633
4.194683733
4.194649494
4.194043978
4.19401248
4.193985158
4.193959329
4.193931309
4.193897836
4.19385719
4.19303273
4.192984248
4.192942645
4.192906119
4.192870589
4.192830943
4.192783051
4.192725045
4.191587927
4.191522777
4.19146695
4.191417328
4.19136786
4.191311546
4.191243195
4.191160859
4.189600596
4.189513701
4.189439228
4.189372126
4.189303665
4.189224504
4.189128271
4.189013141
4.186890496
4.186775955
4.186677384
4.186586734
4.186491524
4.18637947
4.186243021
4.18608095
4.183184422
4.183032296
4.182900697
4.182777278
4.182644552
4.182486603
4.182294639
4.178362274
4.178128337
4.17792748
4.177752007
4.177583172
4.177396709
4.177172356
4.176900362
4.171517683
4.171205732
4.170938529
4.170702639
4.170470399
4.170208755
4.169892259
4.16951049
4.162181764
4.161769571
4.161416433
4.161099983
4.160779973
4.160412107
4.159965205
4.159429244
4.149463577
4.148918631
4.148450875
4.148024847
4.147583242
4.147067727
4.146440856
4.14569448
4.132223277
4.131508114
4.130891517
4.130318982
4.129710474
4.128990735
4.12811619
4.127083386
4.108981829
4.108048399
4.107238205
4.106469938
4.105634158
4.104635837
4.103426074
4.079323949
4.077913695
4.076706663
4.075649874
4.074625832
4.073488718
4.072121641
4.07047243
4.038764551
4.036965177
4.035428172
4.034068106
4.032720886
4.031198118
4.029360658
4.027157047
3.986291376
3.98404614
3.982129191
3.980411675
3.978672926
3.976678137
3.974268121
3.971398449
3.920131945
3.917408263
3.915081215
3.912968644
3.91078707
3.908256197
3.905202275
3.901596078
3.839527992
3.836344684
3.833619552
3.831110546
3.828471603
3.825384463
3.821670279
3.74945417
3.745266774
3.741701257
3.73864022
3.735782348
3.732728527
3.729136745
3.724834781
3.644607009
3.64011506
3.636310438
3.633031716
3.629927524
3.626564358
3.622595826
3.617868779
3.533175983
3.528598876
3.524739462
3.521398474
3.518192039
3.514677136
3.510523507
3.505607151
3.420749947
3.416323758
3.412605331
3.409369287
3.406221809
3.402736527
3.398617168
3.393774894
3.3129692
3.308901051
3.305492763
3.302507088
3.299562776
3.29627222
3.292385292
3.218637391
3.21442167
3.210852483
3.207867337
3.205231282
3.202594229
3.199621941
3.196115409
3.131654766
3.128083104
3.125080591
3.12257045
3.120331753
3.118057982
3.115474683
3.112432792
3.058127303
3.055212865
3.052777985
3.050739581
3.048898667
3.046997948
3.044821993
3.042266178
2.997897838
2.995592391
2.993676455
2.992067268
2.990592323
2.98904364
2.987258855
2.985169684
2.949850272
2.948075131
2.946605857
2.945364446
2.944206118
2.942968372
2.941533577
2.939861444
2.912314459
2.910975565
2.909870355
2.908928482
2.908031916
2.90705744
2.905922865
2.884658983
2.883477725
2.88248517
2.881666619
2.880960771
2.880273886
2.879515086
2.878629073
2.862477178
2.861606657
2.860880253
2.860280476
2.859755388
2.859232235
2.858645649
2.857959902
2.845808577
2.8451736
2.844646918
2.84421069
2.84382209
2.843425885
2.842976129
2.842450756
2.833391179
2.83293305
2.832554741
2.832239315
2.831952166
2.831652212
2.831307975
2.830906786
2.824181544
2.823852151
2.823581057
2.823353087
2.823140861
2.822914354
2.822652411
2.817663879
2.817384858
2.817149901
2.81695676
2.816792282
2.816635198
2.816463993
2.816264861
2.812581416
2.812381205
2.812213878
2.812076269
2.811957323
2.811840802
2.811711537
2.811560739
2.808850599
2.808707768
2.808589154
2.808491321
2.808405194
2.808318596
2.808221029
2.808107118
2.806116887
2.806015275
2.805931297
2.805861587
2.805798811
2.805733971
2.805659932
2.805573585
2.804111353
2.804038926
2.803979354
2.803929627
2.803883996
2.803835917
2.803780596
2.802712515
2.802652439
2.8026017
2.802559963
2.802524548
2.802490974
2.802454589
2.802412317
2.801622905
2.801579459
2.801543066
2.801513176
2.801487528
2.801462683
2.801435325
2.801403455
2.800825197
2.800794412
2.800768811
2.800747765
2.800729432
2.800711242
2.800690907
2.800667191
2.80024747
2.800225887
2.800208017
2.800193203
2.800179943
2.800166341
2.800150858
2.800132783
2.799823891
2.799808396
2.799795638
2.799785027
2.799775373
2.799765288
2.799753722
2.799740269
2.799515329
2.799504486
2.799495561
2.799488017
2.799480925
2.799473289
2.799464434
2.799297991
2.79928872
2.799280942
2.799274572
2.799269169
2.799264022
2.799258426
2.799251929
2.799133313
2.799126958
2.799121671
2.799117358
2.799113673