/*--------------------------------*- C++ -*----------------------------------*\
  =========                 |
  \\      /  F ield         | OpenFOAM: The Open Source CFD Toolbox
   \\    /   O peration     | Website:  https://openfoam.org
    \\  /    A nd           | Version:  10
     \\/     M anipulation  |
\*---------------------------------------------------------------------------*/
FoamFile
{
    format      ascii;
    class       scalarField;
    location    "0";
    object      T_all-;
}
// * * * * * * * * * * * * * * * * * * * * * * * * * * * * * * * * * * * * * //


4000
(
900
900
900
900
900
900
900
900
900
900
900
900
900
900
900
900
900
900
900
900
900
900
900
900
900
900
900
900
900
900
900
900
900
900
900
900
900
900
900
900
900
900
900
900
900
900
900
900
900
900
900
900
900
900
900
900
900
900
900
900
900
900
900
900
900
900
900
900
900
900
900
900
900
900
900
900
900
900
900
900
900
900
900
900
900
900
900
900
900
900
900
900
900
900
900
900
900
900
900
900
900
900
900
900
900
900
900
900
900
900
900
900
900
900
900
900
900
900
900
900
900
900
900
900
900
900
900
900
900
900
900
900
900
900
900
900
900
900
900
900
900
900
900
900
900
900
900
900
900
900
900
900
900
900
900
900
900
900
900
900
900
900
900
900
900
900
900
900
900
900
900
900
900
900
900
900
900
900
900
900
900
900
900
900
900
900
900
900
900
900
900
900
900
900
900
900
900
900
900
900
900
900
900
900
900
900
900
900
900
900
900
900
900
900
900
900
900
900
900
900
900
900
900
900
900
900
900
900
900
900
900
900
900
900
900
900
900
900
900
900
900
900
900
900
900
900
900
900
900
900
900
900
900
900
900
900
900
900
900
900
900
900
900
900
900
900
900
900
900
900
900
900
900
900
900
900
900
900
900
900
900
900
900
900
900
900
900
900
900
900
900
900
900
900
900
900
900
900
900
900
900
900
900
900
900
900
900
900
900
900
900
900
900
900
900
900
900
900
900
900
900
900
900
900
900
900
900
900
900
900
900
900
900
900
900
900
900
900
900
900
900
900
900
900
900
900
900
900
900
900
900
900
900
900
900
900
900
900
900
900
900
900
900
900
900
900
900
900
900
900
900
900
900
900
900
900
900
900
900
900
900
900
900
900
900
900
900
900
900
900
900
900
900
900
900
900
900
900
900
900
900
900
900
900
900
900
900
900
900
900
900
900
900
900
900
900
900
900
900
900
900
900
900
900
900
900
900
900
900
900
900
900
900
900
900
900
900
900
900
900
900
900
900
900
900
900
900
900
900
900
900
900
900
900
900
900
900
900
900
900
900
900
900
900
900
900
900
900
900
900
900
900
900
900
900
900
900
900
900
900
900
900
900
900
900
900
900
900
900
900
900
900
900
900
900
900
900
900
900
900
900
900
900
900
900
900
900
900
900
900
900
900
900
900
900
900
900
900
900
900
900
900
900
900
900
900
900
900
900
900
900
900
900
900
900
900
900
900
900
900
900
900
900
900
900
900
900
900
900
900
900
900
900
900
900
900
900
900
900
900
900
900
900
900
900
900
900
900
900
900
900
900
900
900
900
900
900
900
900
900
900
900
900
900
900
900
900
900
900
900
900
900
900
900
900
900
900
900
900
900
900
900
900
900
900
900
900
900
900
900
900
900
900
900
900
900
900
900
900
900
900
900
900
900
900
900
900
900
900
900
900
900
900
900
900
900
900
900
900
900
900
900
900
900
900
900
900
900
900
900
900
900
900
900
900
900
900
900
900
900
900
900
900
900
900
900
900
900
900
900
900
900
900
900
900
900
900
900
900
900
900
900
900
900
900
900
900
900
900
900
900
900
900
900
900
900
900
900
900
900
900
900
900
900
900
900
900
900
900
900
900
900
900
900
900
900
900
900
900
900
900
900
900
900
900
900
900
900
900
900
900
900
900
900
900
900
900
900
900
900
900
900
900
900
900
900
900
900
900
900
900
900
900
900
900
900
900
900
900
900
900
900
900
900
900
900
900
900
900
900
900
900
900
900
900
900
900
900
900
900
900
900
900
900
900
900
900
900
900
900
900
900
900
900
900
900
900
900
900
900
900
900
900
900
900
900
900
900
900
900
900
900
900
900
900
900
900
900
900
900
900
900
900
900
900
900
900
900
900
900
900
900
900
900
900
900
900
900
900
900
900
900
900
900
900
900
900
900
900
900
900
900
900
900
900
900
900
900
900
900
900
900
900
900
900
900
900
900
900
900
900
900
900
900
900
900
900
900
900
900
900
900
900
900
900
900
900
900
900
900
900
900
900
900
900
900
900
900
900
900
900
900
900
900
900
900
900
900
900
900
900
900
900
900
900
900
900
900
900
900
900
900
900
900
900
900
900
900
900
900
900
900
900
900
900
900
900
900
900
900
900
900
900
900
900
900
900
900
900
900
900
900
900
900
900
900
900
900
900
900
900
900
900
900
900
900
900
900
900
900
900
900
900
900
900
900
900
900
900
900
900
900
900
900
900
900
900
900
900
900
900
900
900
900
900
900
900
900
900
900
900
900
900
900
900
900
900
900
900
900
900
900
900
900
900
900
900
900
900
900
900
900
900
900
900
900
900
900
900
900
900
900
900
900
900
900
900
900
900
900
900
900
900
900
900
900
900
900
900
900
900
900
900
900
900
900
900
900
900
900
900
900
900
900
900
900
900
900
900
900
900
900
900
900
900
900
900
900
900
900
900
900
900
900
900
900
900
900
900
900
900
900
900
900
900
900
900
900
900
900
900
900
900
900
900
900
900
900
900
900
900
900
900
900
900
900
900
900
900
900
900
900
900
900
900
900
900
900
900
900
900
900
900
900
900
900
900
900
900
900
900
900
900
900
900
900
900
900
900
900
900
900
900
900
900
900
900
900
900
900
900
900
900
900
900
900
900
900
900
900
900
900
900
900
900
900
900
900
900
900
900
900
900
900
900
900
900
900
900
900
900
900
900
900
900
900
900
900
900
900
900
900
900
900
900
900
900
900
900
900
900
900
900
900
900
900
900
900
900
900
900
900
900
900
900
900
900
900
900
900
900
900
900
900
900
900
900
900
900
900
900
900
900
900
900
900
900
900
900
900
900
900
900
900
900
900
900
900
900
900
900
900
900
900
900
900
900
900
900
900
900
900
900
900
900
900
900
900
900
900
900
900
900
900
900
900
900
900
900
900
900
900
900
900
900
900
900
900
900
900
900
900
900
900
900
900
900
900
900
900
900
900
900
900
900
900
900
900
900
900
900
900
900
900
900
900
900
900
900
900
900
900
900
900
900
900
900
900
900
900
900
900
900
900
900
900
900
900
900
900
900
900
900
900
900
900
900
900
900
900
900
900
900
900
900
900
900
900
900
900
900
900
900
900
900
900
900
900
900
900
900
900
900
900
900
900
900
900
900
900
900
900
900
900
900
900
900
900
900
900
900
900
900
900
900
900
900
900
900
900
900
900
900
900
900
900
900
900
900
900
900
900
900
900
900
900
900
900
900
900
900
900
900
900
900
900
900
900
900
900
900
900
900
900
900
900
900
900
900
900
900
900
900
900
900
900
900
900
900
900
900
900
900
900
900
900
900
900
900
900
900
900
900
900
900
900
900
900
900
900
900
900
900
900
900
900
900
900
900
900
900
900
899.9995362
899.9995222
899.9995047
899.9994745
899.9994202
899.9993333
899.9992118
899.9990589
899.995425
899.9952264
899.9950429
899.9948458
899.9945967
899.9942629
899.9938301
899.9933026
899.9838477
899.9833036
899.9828349
899.9824027
899.9819471
899.9814096
899.9807543
899.9799759
899.9661322
899.9654041
899.9647752
899.9641873
899.9635574
899.9628096
899.9619019
899.9434143
899.9423156
899.9413732
899.9405523
899.9397666
899.9389039
899.9378696
899.9366175
899.9116589
899.9102249
899.9089945
899.9079023
899.9068164
899.9055818
899.9040811
899.9022682
899.867604
899.8656511
899.8639781
899.8624787
899.8609617
899.8592172
899.857098
899.8545569
899.8072047
899.8046283
899.8024131
899.8003861
899.7982715
899.7957908
899.7927682
899.7891681
899.7243968
899.7209614
899.7179983
899.7152431
899.7123098
899.7088364
899.7046147
899.6171017
899.6118649
899.6073628
899.603438
899.5996829
899.5955572
899.5905991
899.5845778
899.464169
899.4571365
899.4511085
899.4458024
899.4406102
899.4347884
899.427751
899.4192455
899.2545364
899.2452
899.2372025
899.2300671
899.2229044
899.2147115
899.2047637
899.1928088
898.96821
898.9558541
898.9452492
898.9356215
898.9256876
898.9141143
898.9000259
898.8832077
898.5768031
898.560424
898.5463093
898.5332478
898.5194201
898.5030822
898.4831988
898.4596507
898.0425084
898.020858
898.0020663
897.9842782
897.9649515
897.9418425
897.9137695
897.3461644
897.3127368
897.2840669
897.2589357
897.234561
897.207443
897.1747412
897.1351595
896.3610647
896.3167486
896.2787973
896.2451242
896.211651
896.1736467
896.1275835
896.0721251
895.0205656
894.9621394
894.9120559
894.866903
894.8207958
894.7674421
894.7025631
894.6249418
893.1986519
893.1216576
893.0554625
892.9947157
892.9310916
892.8563675
892.7654675
892.6575375
890.7318219
890.6308936
890.5436324
890.4618805
890.3740715
890.2696655
890.1428331
887.5588406
887.4051533
887.2733074
887.1584122
887.0483732
886.9274418
886.7823775
886.6067343
883.1455529
882.9455288
882.774348
882.6235718
882.4756883
882.3096832
882.1092977
881.8678031
877.2652349
877.0068234
876.7858317
876.5886858
876.3906787
876.1643946
875.890347
875.5620795
869.5067712
869.1766965
868.8941033
868.63824
868.3751743
868.0700293
867.7001283
867.2602148
859.4002768
858.9843927
858.6272859
858.2985694
857.9529581
857.5472911
857.0560727
856.4766288
846.4431094
845.9277367
845.4831956
845.066812
844.6200563
844.0911376
843.4525428
830.8990137
830.1664332
829.5412277
828.9986998
828.4813661
827.9162137
827.2432268
826.4342316
811.0934947
810.2243676
809.485162
808.8391248
808.2121707
807.5167429
806.6859549
805.6928502
787.5158365
786.5172608
785.6700222
784.9235538
784.186713
783.3589516
782.368934
781.1932595
760.4059468
759.2998301
758.3628271
757.5299699
756.6945228
755.7462982
754.6128395
753.2767909
730.429177
729.2530236
728.2574689
727.3641761
726.4544352
725.4133843
724.1713223
700.0696734
698.6603529
697.4637087
696.4506749
695.5322609
694.5832124
693.4898963
692.1892252
667.8223844
666.4431563
665.2795107
664.2932612
663.3889141
662.4411187
661.3433075
660.042132
636.4751375
635.1859243
634.1043188
633.1853377
632.3319166
631.4249964
630.3698921
629.1249119
607.2891456
606.1362666
605.1735749
604.3521563
603.5782191
602.7442436
601.7705192
600.6275275
581.1865509
580.1967107
579.3731592
578.6660506
577.9889523
577.2493034
576.383449
559.6493083
558.6819807
557.8630134
557.1831661
556.5942989
556.0201653
555.3845928
554.6393624
540.6778806
539.8968894
539.2407614
538.6964421
538.2195472
537.745466
537.2140738
536.590732
525.2619279
524.6492557
524.137987
523.7132166
523.3356001
522.9523397
522.5177853
522.008446
513.0245877
512.5550314
512.1654015
511.8404829
511.5466023
511.2420067
510.8932363
510.4853638
503.4972956
503.1445295
502.8530722
502.6084373
502.3826752
502.1437416
501.8679319
496.5020947
496.1941217
495.9331917
495.7182058
495.5360416
495.3641223
495.1785061
494.9629365
490.8896151
490.6627371
490.4720823
490.3151394
490.1804602
490.0502445
489.9070363
489.7400532
486.6768138
486.5113689
486.3733374
486.2595907
486.1604509
486.0621961
485.9523835
485.8241146
483.5388079
483.4192693
483.3201336
483.2381361
483.1652979
483.0912569
483.0073416
482.9093415
481.2137912
481.1279172
481.0570398
480.9980554
480.9445367
480.8888056
480.8249418
480.7505275
479.498781
479.4374708
479.3870221
479.3446355
479.3052319
479.2632259
479.2146695
478.2883394
478.2364706
478.1927916
478.1569024
478.1263766
478.0972731
478.0655934
478.0287621
477.3462175
477.3091131
477.2781007
477.2526001
477.2305676
477.2089969
477.1850748
477.1571698
476.6551773
476.6287016
476.6067158
476.5885878
476.5726401
476.5566179
476.5385743
476.5175101
476.1496348
476.1308393
476.1153157
476.1024538
476.0909102
476.0790257
476.0654784
476.0496866
475.7813126
475.7680571
475.757144
475.7480141
475.7396065
475.7307206
475.7204806
475.5232571
475.5121177
475.5027124
475.4949851
475.4884474
475.4822748
475.475607
475.4678707
475.3232334
475.3152948
475.308646
475.3031877
475.2985091
475.2939827
475.289003
475.2832039
475.1775949
475.1719846
475.1673143
475.163463
475.1600878
475.1567163
475.1529308
475.148509
475.0706969
475.0666672
475.0633352
475.0605835
475.058137
475.0556447
475.0528184
475.0495229
474.9930101
474.990192
474.9878712
474.9859393
474.98418
474.9823403
474.9802293
474.9777737
474.9366759
474.9346935
474.9330606
474.9316779
474.9303742
474.9289677
474.9273348
474.8967076
474.894997
474.8935619
474.892388
474.8913943
474.8904507
474.8894266
474.8882388
474.8662945
474.8651269
474.8641526
474.8633492
474.862648
474.8619521
474.8611735
474.8602638
474.8440169
474.8431671
474.8424615
474.841876
474.8413527
474.8408175
474.8402087
474.8394969
474.8273087
474.8266863
474.8261746
474.8257531
474.8253773
474.8249923
474.8245551
474.8240468
474.8154495
474.8150344
474.8146932
474.8144072
474.8141424
474.8138609
474.8135361
474.8073184
474.8069717
474.8066796
474.8064392
474.806234
474.8060374
474.8058227
474.8055727
474.801459
474.801222
474.8010303
474.8008902
474.8008003
474.8007494
474.8007208
474.8006997
474.8006997
474.8007208
474.8007494
474.8008003
474.8008902
474.8010303
474.801222
474.801459
474.8055727
474.8058227
474.8060374
474.806234
474.8064392
474.8066796
474.8069717
474.8073184
474.8135361
474.8138609
474.8141424
474.8144072
474.8146932
474.8150344
474.8154495
474.8240468
474.8245551
474.8249923
474.8253773
474.8257531
474.8261746
474.8266863
474.8273087
474.8394969
474.8402087
474.8408175
474.8413527
474.841876
474.8424615
474.8431671
474.8440169
474.8602638
474.8611735
474.8619521
474.862648
474.8633492
474.8641526
474.8651269
474.8662945
474.8882388
474.8894266
474.8904507
474.8913943
474.892388
474.8935619
474.894997
474.8967076
474.9273348
474.9289677
474.9303742
474.9316779
474.9330606
474.9346935
474.9366759
474.9390158
474.9802293
474.9823403
474.98418
474.9859393
474.9878712
474.990192
474.9930101
475.0495229
475.0528184
475.0556447
475.058137
475.0605835
475.0633352
475.0666672
475.0706969
475.148509
475.1529308
475.1567163
475.1600878
475.163463
475.1673143
475.1719846
475.1775949
475.2832039
475.289003
475.2939827
475.2985091
475.3031877
475.308646
475.3152948
475.3232334
475.4678707
475.475607
475.4822748
475.4884474
475.4949851
475.5027124
475.5121177
475.5232571
475.7204806
475.7307206
475.7396065
475.7480141
475.757144
475.7680571
475.7813126
476.0496866
476.0654784
476.0790257
476.0909102
476.1024538
476.1153157
476.1308393
476.1496348
476.5175101
476.5385743
476.5566179
476.5726401
476.5885878
476.6067158
476.6287016
476.6551773
477.1571698
477.1850748
477.2089969
477.2305676
477.2526001
477.2781007
477.3091131
477.3462175
478.0287621
478.0655934
478.0972731
478.1263766
478.1569024
478.1927916
478.2364706
478.2883394
479.2146695
479.2632259
479.3052319
479.3446355
479.3870221
479.4374708
479.498781
480.7505275
480.8249418
480.8888056
480.9445367
480.9980554
481.0570398
481.1279172
481.2137912
482.9093415
483.0073416
483.0912569
483.1652979
483.2381361
483.3201336
483.4192693
483.5388079
485.8241146
485.9523835
486.0621961
486.1604509
486.2595907
486.3733374
486.5113689
486.6768138
489.7400532
489.9070363
490.0502445
490.1804602
490.3151394
490.4720823
490.6627371
490.8896151
494.9629365
495.1785061
495.3641223
495.5360416
495.7182058
495.9331917
496.1941217
496.5020947
501.8679319
502.1437416
502.3826752
502.6084373
502.8530722
503.1445295
503.4972956
510.4853638
510.8932363
511.2420067
511.5466023
511.8404829
512.1654015
512.5550314
513.0245877
522.008446
522.5177853
522.9523397
523.3356001
523.7132166
524.137987
524.6492557
525.2619279
536.590732
537.2140738
537.745466
538.2195472
538.6964421
539.2407614
539.8968894
540.6778806
554.6393624
555.3845928
556.0201653
556.5942989
557.1831661
557.8630134
558.6819807
559.6493083
576.383449
577.2493034
577.9889523
578.6660506
579.3731592
580.1967107
581.1865509
600.6275275
601.7705192
602.7442436
603.5782191
604.3521563
605.1735749
606.1362666
607.2891456
629.1249119
630.3698921
631.4249964
632.3319166
633.1853377
634.1043188
635.1859243
636.4751375
660.042132
661.3433075
662.4411187
663.3889141
664.2932612
665.2795107
666.4431563
667.8223844
692.1892252
693.4898963
694.5832124
695.5322609
696.4506749
697.4637087
698.6603529
700.0696734
724.1713223
725.4133843
726.4544352
727.3641761
728.2574689
729.2530236
730.429177
753.2767909
754.6128395
755.7462982
756.6945228
757.5299699
758.3628271
759.2998301
760.4059468
781.1932595
782.368934
783.3589516
784.186713
784.9235538
785.6700222
786.5172608
787.5158365
805.6928502
806.6859549
807.5167429
808.2121707
808.8391248
809.485162
810.2243676
811.0934947
826.4342316
827.2432268
827.9162137
828.4813661
828.9986998
829.5412277
830.1664332
830.8990137
843.4525428
844.0911376
844.6200563
845.066812
845.4831956
845.9277367
846.4431094
847.044284
857.0560727
857.5472911
857.9529581
858.2985694
858.6272859
858.9843927
859.4002768
867.2602148
867.7001283
868.0700293
868.3751743
868.63824
868.8941033
869.1766965
869.5067712
875.5620795
875.890347
876.1643946
876.3906787
876.5886858
876.7858317
877.0068234
877.2652349
881.8678031
882.1092977
882.3096832
882.4756883
882.6235718
882.774348
882.9455288
883.1455529
886.6067343
886.7823775
886.9274418
887.0483732
887.1584122
887.2733074
887.4051533
887.5588406
890.1428331
890.2696655
890.3740715
890.4618805
890.5436324
890.6308936
890.7318219
892.6575375
892.7654675
892.8563675
892.9310916
892.9947157
893.0554625
893.1216576
893.1986519
894.6249418
894.7025631
894.7674421
894.8207958
894.866903
894.9120559
894.9621394
895.0205656
896.0721251
896.1275835
896.1736467
896.211651
896.2451242
896.2787973
896.3167486
896.3610647
897.1351595
897.1747412
897.207443
897.234561
897.2589357
897.2840669
897.3127368
897.3461644
897.9137695
897.9418425
897.9649515
897.9842782
898.0020663
898.020858
898.0425084
898.4596507
898.4831988
898.5030822
898.5194201
898.5332478
898.5463093
898.560424
898.5768031
898.8832077
898.9000259
898.9141143
898.9256876
898.9356215
898.9452492
898.9558541
898.96821
899.1928088
899.2047637
899.2147115
899.2229044
899.2300671
899.2372025
899.2452
899.2545364
899.4192455
899.427751
899.4347884
899.4406102
899.4458024
899.4511085
899.4571365
899.464169
899.5845778
899.5905991
899.5955572
899.5996829
899.603438
899.6073628
899.6118649
899.6171017
899.7046147
899.7088364
899.7123098
899.7152431
899.7179983
899.7209614
899.7243968
899.7891681
899.7927682
899.7957908
899.7982715
899.8003861
899.8024131
899.8046283
899.8072047
899.8545569
899.857098
899.8592172
899.8609617
899.8624787
899.8639781
899.8656511
899.867604
899.9022682
899.9040811
899.9055818
899.9068164
899.9079023
899.9089945
899.9102249
899.9116589
899.9366175
899.9378696
899.9389039
899.9397666
899.9405523
899.9413732
899.9423156
899.9434143
899.9619019
899.9628096
899.9635574
899.9641873
899.9647752
899.9654041
899.9661322
899.9799759
899.9807543
899.9814096
899.9819471
899.9824027
899.9828349
899.9833036
899.9838477
899.9933026
899.9938301
899.9942629
899.9945967
899.9948458
899.9950429
899.9952264
899.995425
899.9990589
899.9992118
899.9993333
899.9994202
899.9994745
899.9995047
899.9995222
899.9995362
900
900
900
900
900
900
900
900
900
900
900
900
900
900
900
900
900
900
900
900
900
900
900
900
900
900
900
900
900
900
900
900
900
900
900
900
900
900
900
900
900
900
900
900
900
900
900
900
900
900
900
900
900
900
900
900
900
900
900
900
900
900
900
900
900
900
900
900
900
900
900
900
900
900
900
900
900
900
900
900
900
900
900
900
900
900
900
900
900
900
900
900
900
900
900
900
900
900
900
900
900
900
900
900
900
900
900
900
900
900
900
900
900
900
900
900
900
900
900
900
900
900
900
900
900
900
900
900
900
900
900
900
900
900
900
900
900
900
900
900
900
900
900
900
900
900
900
900
900
900
900
900
900
900
900
900
900
900
900
900
900
900
900
900
900
900
900
900
900
900
900
900
900
900
900
900
900
900
900
900
900
900
900
900
900
900
900
900
900
900
900
900
900
900
900
900
900
900
900
900
900
900
900
900
900
900
900
900
900
900
900
900
900
900
900
900
900
900
900
900
900
900
900
900
900
900
900
900
900
900
900
900
900
900
900
900
900
900
900
900
900
900
900
900
900
900
900
900
900
900
900
900
900
900
900
900
900
900
900
900
900
900
900
900
900
900
900
900
900
900
900
900
900
900
900
900
900
900
900
900
900
900
900
900
900
900
900
900
900
900
900
900
900
900
900
900
900
900
900
900
900
900
900
900
900
900
900
900
900
900
900
900
900
900
900
900
900
900
900
900
900
900
900
900
900
900
900
900
900
900
900
900
900
900
900
900
900
900
900
900
900
900
900
900
900
900
900
900
900
900
900
900
900
900
900
900
900
900
900
900
900
900
900
900
900
900
900
900
900
900
900
900
900
900
900
900
900
900
900
900
900
900
900
900
900
900
900
900
900
900
900
900
900
900
900
900
900
900
900
900
900
900
900
900
900
900
900
900
900
900
900
900
900
900
900
900
900
900
900
900
900
900
900
900
900
900
900
900
900
900
900
900
900
900
900
900
900
900
900
900
900
900
900
900
900
900
900
900
900
900
900
900
900
900
900
900
900
900
900
900
900
900
900
900
900
900
900
900
900
900
900
900
900
900
900
900
900
900
900
900
900
900
900
900
900
900
900
900
900
900
900
900
900
900
900
900
900
900
900
900
900
900
900
900
900
900
900
900
900
900
900
900
900
900
900
900
900
900
900
900
900
900
900
900
900
900
900
900
900
900
900
900
900
900
900
900
900
900
900
900
900
900
900
900
900
900
900
900
900
900
900
900
900
900
900
900
900
900
900
900
900
900
900
900
900
900
900
900
900
900
900
900
900
900
900
900
900
900
900
900
900
900
900
900
900
900
900
900
900
900
900
900
900
900
900
900
900
900
900
900
900
900
900
900
900
900
900
900
900
900
900
900
900
900
900
900
900
900
900
900
900
900
900
900
900
900
900
900
900
900
900
900
900
900
900
900
900
900
900
900
900
900
900
900
900
900
900
900
900
900
900
900
900
900
900
900
900
900
900
900
900
900
900
900
900
900
900
900
900
900
900
900
900
900
900
900
900
900
900
900
900
900
900
900
900
900
900
900
900
900
900
900
900
900
900
900
900
900
900
900
900
900
900
900
900
900
900
900
900
900
900
900
900
900
900
900
900
900
900
900
900
900
900
900
900
900
900
900
900
900
900
900
900
900
900
900
900
900
900
900
900
900
900
900
900
900
900
900
900
900
900
900
900
900
900
900
900
900
900
900
900
900
900
900
900
900
900
900
900
900
900
900
900
900
900
900
900
900
900
900
900
900
900
900
900
900
900
900
900
900
900
900
900
900
900
900
900
900
900
900
900
900
900
900
900
900
900
900
900
900
900
900
900
900
900
900
900
900
900
900
900
900
900
900
900
900
900
900
900
900
900
900
900
900
900
900
900
900
900
900
900
900
900
900
900
900
900
900
900
900
900
900
900
900
900
900
900
900
900
900
900
900
900
900
900
900
900
900
900
900
900
900
900
900
900
900
900
900
900
900
900
900
900
900
900
900
900
900
900
900
900
900
900
900
900
900
900
900
900
900
900
900
900
900
900
900
900
900
900
900
900
900
900
900
900
900
900
900
900
900
900
900
900
900
900
900
900
900
900
900
900
900
900
900
900
900
900
900
900
900
900
900
900
900
900
900
900
900
900
900
900
900
900
900
900
900
900
900
900
900
900
900
900
900
900
900
900
900
900
900
900
900
900
900
900
900
900
900
900
900
900
900
900
900
900
900
900
900
900
900
900
900
900
900
900
900
900
900
900
900
900
900
900
900
900
900
900
900
900
900
900
900
900
900
900
900
900
900
900
900
900
900
900
900
900
900
900
900
900
900
900
900
900
900
900
900
900
900
900
900
900
900
900
900
900
900
900
900
900
900
900
900
900
900
900
900
900
900
900
900
900
900
900
900
900
900
900
900
900
900
900
900
900
900
900
900
900
900
900
900
900
900
900
900
900
900
900
900
900
900
900
900
900
900
900
900
900
900
900
900
900
900
900
900
900
900
900
900
900
900
900
900
900
900
900
900
900
900
900
900
900
900
900
900
900
900
900
900
900
900
900
900
900
900
900
900
900
900
900
900
900
900
900
900
900
900
900
900
900
900
900
900
900
900
900
900
900
900
900
900
900
900
900
900
900
900
900
900
900
900
900
900
900
900
900
900
900
900
900
900
900
900
900
900
900
900
900
900
900
900
900
900
900
900
900
900
900
900
900
900
900
900
900
900
900
900
900
900
900
900
900
900
900
900
900
900
900
900
900
900
900
900
900
900
900
900
900
900
900
900
900
900
900
900
900
900
900
900
900
900
900
900
900
900
900
900
900
900
900
900
900
900
900
900
900
900
900
900
900
900
900
900
900
900
900
900
900
900
900
900
900
900
900
900
900
900
900
900
900
900
900
900
900
900
900
900
900
900
900
900
900
900
900
900
900
900
900
900
900
900
900
900
900
900
900
900
900
900
900
900
900
900
900
900
900
900
900
900
900
900
900
900
900
900
900
900
900
900
900
900
900
900
900
900
900
900
900
900
900
900
900
900
900
900
900
900
900
900
900
900
900
900
900
900
900
900
900
900
900
900
900
900
900
900
900
900
900
900
900
900
900
900
900
900
900
900
900
900
900
900
900
900
900
900
900
900
900
900
900
900
900
900
900
900
900
900
900
900
900
900
900
900
900
900
900
900
900
900
900
900
900
900
900
900
900
900
900
900
900
900
900
900
900
900
900
900
900
900
900
900
900
900
900
900
900
900
900
900
900
900
900
900
900
900
900
900
900
900
900
900
900
900
900
900
900
900
900
900
900
900
900
900
900
900
900
900
900
900
900
900
900
900
900
900
900
900
900
900
900
900
900
900
900
900
900
900
900
900
900
900
900
900
)


// ************************************************************************* //
